-- Пример модели для тНавигатор
-- для курсов ИСП и ГДИС
-- 10.2023
-- Model name: MODEL_3_TASK
--  
-- 


RUNSPEC

TNAVCTRL
 LONGNAMES           YES /
 E1_E3_BINARY_EXPORT ON  /
/


TITLE
MODEL_3_TASK

START
 09 OCT 2023 /


OIL

WATER

GAS

DISGAS


METRIC

ENDSCALE
 /

DIMENS
 55 55 1 /

TABDIMS
 1 1 50 50 1* 5 6* 1 /

WELLDIMS
 1 1 1 1 /

EQLDIMS
 1 1* 2 /



UNIFOUT


GRID


--wname
WELLTRACK 'WU1_1'
-- X   Y   Z      MD
   275 275 1900     0
   275 275 2002.5 102.5
   275 275 2102.5 202.5 /



-- добавим одну трещину
-- так чтобы она построилась с локальным размельчением
--

FRACTURE_PATH
 'ПроекцияГРП1' 2
 0 -100 0
 0    0 0
 0  100 0 /


FRACTURE_TEMPLATE
 'ШаблоныГРПXYZ1' /
 PLANE              'ПроекцияГРП1' /
 UP                   20                      /
 DOWN                 20                      /
 STIMULATED_WIDTH_R   0                      /
 STIMULATED_WIDTH_L   0                      /
 PERM_FZ              10000                      /
 WIDTH                0.1                      /
 /

FRACTURE_WELL
 'СтадияГРП1' 'WU1_1' 0 /
 'ШаблоныГРПXYZ1' 102 /
 /

FRACTURE_ARITHMETIC
 'АрифметикаГРП1' /
 PERMX (dp : ALL, zone : FZ,  active: ALL) = 10000          /
 PERMY (dp : ALL, zone : FZ,  active: ALL) = 10000          /
 PERMZ (dp : ALL, zone : FZ,  active: ALL) = 1000          /
 /
--
-- задаем руками квадратную модель с использованием геометрии центральной точки
-- чтобы поменять размеры модели можно изменить DX DY
EQUALS

TOPS  2000/
DX  10/
DY  10/
DZ  5/
ACTNUM 1/
NTG 1/
PERMX 40/
PERMY 40/
PERMZ 4/
PORO  0.2/
/

-- 
-- Используя арифметику сделаем модель круглой (ACTNUM)
-- и по границе установим постоянное давление (завысим значения NTG)
--

ARITHMETIC
    ACTNUM = IF( SQRT(POW(I-28,2)+POW(J-28,2)) < 28,1,0)/

    NTG = IF( SQRT(POW(I-28,2)+POW(J-28,2)) < 28,1e6,0)/
    NTG = IF( SQRT(POW(I-28,2)+POW(J-28,2)) < 27,1,NTG)/
/




EDIT


PROPS



PVTO
-- gor                 pressure            fvf                viscosity
    3.8213462641562767  10.1325            1.082991893307779  3.3087463693418437
                        25.388684210526315 1.0828266826722906 3.3612042153365047
                        40.644868421052638 1.0826614972397189 3.4136620613311656
                        55.90105263157895  1.0824963370062187 3.4661199073258266
                        71.15723684210527  1.0823312019679459 3.5185777533204876
                        86.41342105263158  1.082166092121057  3.5710355993151485
                       101.6696052631579   1.0820010074617093 3.6234934453098095
                       116.9257894736842   1.08183594798606   3.6759512913044709
                       132.18197368421054  1.0816709136902679 3.7284091372991319
                       147.43815789473684  1.0815059045704914 3.7808669832937928
                       162.69434210526317  1.0813409206228897 3.8333248292884538
                       177.95052631578947  1.0811759618436233 3.8857826752831148
                       193.2067105263158   1.0810110282288526 3.9382405212777757
                       208.46289473684213  1.0808461197747384 3.9906983672724367
                       223.71907894736843  1.0806812364774428 4.043156213267098
                       238.97526315789473  1.080516378333128  4.0956140592617589
                       254.23144736842105  1.080351545337957  4.14807190525642
                       269.4876315789474   1.0801867374880934 4.20052975125108
                       284.7438157894737   1.0800219547797008 4.252987597245742
                       300                 1.0798571972089444 4.305445443240402  /
   10.33223469711887    25.388684210526315 1.1004319422259737 2.959397303164998
                        40.644868421052638 1.1002640711074452 3.004969526723384
                        55.90105263157895  1.1000962255976906 3.0505417502817706
                        71.15723684210527  1.0999284056928028 3.0961139738401566
                        86.41342105263158  1.0997606113888759 3.1416861973985426
                       101.6696052631579   1.0995928426820046 3.187258420956929
                       116.9257894736842   1.0994250995682838 3.2328306445153149
                       132.18197368421054  1.0992573820438092 3.2784028680737009
                       147.43815789473684  1.0990896901046777 3.323975091632087
                       162.69434210526317  1.0989220237469859 3.369547315190473
                       177.95052631578947  1.0987543829668312 3.415119538748859
                       193.2067105263158   1.098586767760312  3.4606917623072457
                       208.46289473684213  1.0984191781235269 3.5062639858656317
                       223.71907894736843  1.0982516140525754 3.5518362094240176
                       238.97526315789473  1.0980840755435573 3.597408432982404
                       254.23144736842105  1.0979165625925729 3.64298065654079
                       269.4876315789474   1.0977490751957236 3.6885528800991764
                       284.7438157894737   1.0975816133491113 3.7341251036575624
                       300                 1.0974141770488378 3.779697327215948  /
   17.682766785496765   40.644868421052638 1.120621331204878  2.6358932806763675
                        55.90105263157895  1.1204503801909194 2.6754013306395629
                        71.15723684210527  1.120279455255573  2.7149093806027588
                        86.41342105263158  1.1201085563948606 2.754417430565954
                       101.6696052631579   1.1199376836048043 2.79392548052915
                       116.9257894736842   1.119766836881427  2.8334335304923456
                       132.18197368421054  1.1195960162207528 2.8729415804555415
                       147.43815789473684  1.1194252216188053 2.912449630418737
                       162.69434210526317  1.1192544530716094 2.9519576803819325
                       177.95052631578947  1.1190837105751904 2.991465730345128
                       193.2067105263158   1.118912994125574  3.0309737803083238
                       208.46289473684213  1.1187423037187872 3.0704818302715197
                       223.71907894736843  1.118571639350857  3.109989880234715
                       238.97526315789473  1.1184010010178112 3.149497930197911
                       254.23144736842105  1.118230388715678  3.1890059801611065
                       269.4876315789474   1.1180598024404865 3.228514030124302
                       284.7438157894737   1.1178892421882663 3.2680220800874979
                       300                 1.1177187079550475 3.307530130050693  /
   25.60732115763386    55.90105263157895  1.1429258720444267 2.3495491760862876
                        71.15723684210527  1.1427515184681874 2.383946650111854
                        86.41342105263158  1.142577191489622  2.4183441241374208
                       101.6696052631579   1.1424028911046727 2.452741598162987
                       116.9257894736842   1.142228617309283  2.487139072188554
                       132.18197368421054  1.1420543700993966 2.5215365462141205
                       147.43815789473684  1.1418801494709579 2.555934020239687
                       162.69434210526317  1.1417059554199117 2.5903314942652537
                       177.95052631578947  1.1415317879422036 2.62472896829082
                       193.2067105263158   1.14135764703378   2.659126442316387
                       208.46289473684213  1.141183532690588  2.6935239163419539
                       223.71907894736843  1.1410094449085744 2.7279213903675205
                       238.97526315789473  1.1408353836836878 2.762318864393087
                       254.23144736842105  1.1406613490118769 2.7967163384186537
                       269.4876315789474   1.1404873408890908 2.83111381244422
                       284.7438157894737   1.1403133593112794 2.8655112864697869
                       300                 1.1401394042743934 2.8999087604953535 /
   27.816307833677699   60                 1.1492359575400522 2.278950394256453
                        71.15723684210527  1.1491077417151994 2.3032122946997628
                        86.41342105263158  1.1489324450934738 2.336387535818938
                       101.6696052631579   1.1487571752132837 2.369562776938113
                       116.9257894736842   1.1485819320705498 2.402738018057288
                       132.18197368421054  1.148406715661193  2.435913259176463
                       147.43815789473684  1.1482315259811356 2.4690885002956386
                       162.69434210526317  1.1480563630263    2.5022637414148134
                       177.95052631578947  1.1478812267926089 2.5354389825339886
                       193.2067105263158   1.1477061172759862 2.5686142236531639
                       208.46289473684213  1.1475310344723562 2.601789464772339
                       223.71907894736843  1.147355978377644  2.6349647058915139
                       238.97526315789473  1.1471809489877747 2.668139947010689
                       254.23144736842105  1.1470059462986746 2.7013151881298644
                       269.4876315789474   1.146830970306271  2.734490429249039
                       284.7438157894737   1.1466560210064907 2.7676656703682145
                       300                 1.146481098395262  2.8008409114873897 /
/


PVTOPTS
 B1 BMU1 B1 BMU1 /

PVTW
-- pref    fvf compressibility         viscosity viscosibility
   1.01325 1   0.000039476930668640514 0.3       /


PVDG
-- pressure            fvf                   viscosity
    10.1325            0.11628578781163404   0.012037335642385003
    25.388684210526315 0.04640909057086406   0.012361465024982172
    40.644868421052638 0.028989286735913779  0.012780760716596186
    55.90105263157895  0.02107770228884331   0.013279254126407433
    71.15723684210527  0.016558621403693645  0.013852115434412374
    86.41342105263158  0.013635216968018649  0.014498817961905156
   101.6696052631579   0.011589164155320579  0.01522119228504886
   116.9257894736842   0.010077039037367949  0.01602266161126068
   132.18197368421054  0.008913966951471907  0.016907898904690124
   147.43815789473684  0.007991592962268304  0.01788267089037753
   162.69434210526317  0.0072422047979950319 0.018953778586056639
   177.95052631578947  0.0066213108182127089 0.02012905450120026
   193.2067105263158   0.006098472158610121  0.021417397299810585
   208.46289473684213  0.005652160527123028  0.02282883422128939
   223.71907894736843  0.005266719988949078  0.02437460635266658
   238.97526315789473  0.0049304925096907759 0.02606727448191269
   254.23144736842105  0.004634618404598433  0.027920844834369665
   269.4876315789474   0.004372244240293473  0.029950915017422875
   284.7438157894737   0.0041379853737457    0.032174841230618967
   300                 0.00392755248333794   0.03461192837707652  /



DENSITY
-- oil water   gas  (sc)
   900 999.014 1.22 /


ROCK
-- pressure rock-compres (rock-matrix-compres block-compres porosity Poisson-coef)
   200      0.00005      /


STCOND
 15.56 1.01325 /


COREYWO
-- SWL SWU SWCR SOWCR KROLW KRORW KRWR KRWU PCOW NOW NW NP SPC0
   0   1   0    0     1     1     1    1    0    4   4  4  -1   /


COREYGO
-- SGL SGU SGCR SOGCR KROLG KRORG KRGR KRGU PCOG NOG NG NPG SPCG
   0   1   0    0     1     1     1    1    0    4   4  4   -1   /




REGIONS



SOLUTION
EQUIL
-- depth pres depth-wo pres-wo depth-go pres-go rsvd rvvd accuracy
   2000  200  2200     0       -100     0       1    /


RSVD
-- depth rs
   2000  50
   2010  50
/

-- уставим вывод все данных на всех временных шагах
RPTRST
BASIC=1  /


SUMMARY



SCHEDULE


WELSPECS
-- wname   gname iw jw ref.depth phase radius inflow_flag shut-in_flag crossflow_ability_flag PVT_n density_type filt.tbl reserved reserved well_model_type polymer_mixing_tbl.n
   'WU1_1' 1*    2*    1*        OIL   250/
/


FRACTURE_STAGE
-- stage_name            on/off arithmetic_name               proppant_volume
   'СтадияГРП1' ON     'АрифметикаГРП1' 0               /        /
/



COMPDATMD
-- wname|stage_name      branch|stage_num mdl|delta1 mdu|delta2 md_type status filt.tbl pi diameter Kh skin D-factor cf_mult DP completion
   'СтадияГРП1' 1*               15         15         STAGE   OPEN   /
/

--COMPDATMD
-- wname|stage_name branch|stage_num mdl|delta1        mdu|delta2         md_type status filt.tbl pi diameter Kh skin D-factor cf_mult           DP completion
--   'WU1_1'          1*               100               105                 MD      OPEN   2*          0.2      1* 0    0        1.0              1* 1          /
--/

--COMPDAT
--  wname     i j   z1      z2      perf   2*     diam    1*   skin
--   'WU1_1'    2*    1       1       OPEN   2*     0.2      1*  0      /
--/


WCONPROD
-- wname   status control orate wrate grate lrate lrate(rc) BHP THP VFP_n ALQ wgrate mlrate steam sat.pressure sat.temperature calorific_rate linearly_combined_rate NGL_rate
   'WU1_1' OPEN   BHP     3*                50    1*        5   /
/

TSTEP
100*1
/
